288
Lattice="30.12 0.0 0.0 15.06 26.084685 0.0 0.0 0.0 12.0" Properties=species:S:1:pos:R:3:forces:R:3 pbe340=-92.29447368726598 energy=-2511.46055142 stress="0.01340469566287657 0.0 -0.0 0.0 0.01340469566287657 0.0 -0.0 0.0 0.02542096137919129" magmom=2.0000008 pbc="T T T"
B       0.00285000       0.00165000       6.00000000       0.00962000       0.00555400      -0.00000000 
B       1.25863000       2.17277000       6.00000000       0.00037800      -0.00030800      -0.00000000 
B       2.51265000       4.34478000       6.00000000       0.00045500      -0.00017300       0.00000000 
B       3.76500000       6.51788000       6.00000000       0.00000000      -0.01110800      -0.00000000 
B       5.01472000       8.69132000       6.00000000       0.01826800      -0.00463700      -0.00000000 
B      36.38130000      10.86634000       6.00000000       0.01041000      -0.00278600      -0.00000000 
B       7.51089000      13.04389000       6.00000000       0.00224200       0.00359100      -0.00000000 
B       8.76508000      15.22358000       6.00000000      -0.00037000       0.00568600      -0.00000000 
B      10.02353000      17.40329000       6.00000000      -0.00510900      -0.00252200       0.00000000 
B      11.28411000      19.57929000       6.00000000      -0.00198900      -0.00373700       0.00000000 
B      42.66512000      21.75024000       6.00000000       0.00761700      -0.00762200      -0.00000000 
B      13.80546000      23.91732000       6.00000000       0.01315000      -0.01350200      -0.00000000 
B       2.51099000       0.00363000       6.00000000      -0.00007800       0.00048100       0.00000000 
B       3.76500000       2.17372000       6.00000000       0.00000000      -0.00000000      -0.00000000 
B       5.01735000       4.34478000       6.00000000      -0.00045500      -0.00017300      -0.00000000 
B       6.26780000       6.51683000       6.00000000       0.00412800      -0.00149600      -0.00000000 
B       7.51525000       8.68994000       6.00000000      -0.00171800       0.00044500      -0.00000000 
B       8.75508000      10.86607000       6.00000000      -0.00388400       0.00415400      -0.00000000 
B      10.00526000      13.04851000       6.00000000      -0.00126100       0.00329800      -0.00000000 
B      11.26366000      15.23416000       6.00000000       0.00048400      -0.00027900      -0.00000000 
B      12.52729000      17.41680000       6.00000000      -0.00348700      -0.00055700      -0.00000000 
B      13.79225000      19.59070000       6.00000000      -0.00553900       0.00128700      -0.00000000 
B      15.05692000      21.75249000       6.00000000      -0.00124500       0.00126500      -0.00000000 
B      16.31516000      23.91937000       6.00000000       0.00336000      -0.00282700       0.00000000 
B       5.01901000       0.00363000       6.00000000       0.00007800       0.00048100       0.00000000 
B       6.27137000       2.17277000       6.00000000      -0.00037800      -0.00030800      -0.00000000 
B       7.52243000       4.34308000       6.00000000       0.00228000       0.00131600      -0.00000000 
B       8.77116000       6.51450000       6.00000000      -0.00109500      -0.00426900      -0.00000000 
B      10.01552000       8.68773000       6.00000000      -0.00422600      -0.00535700       0.00000000 
B      11.24049000      10.86695000       6.00000000      -0.00839300      -0.00210500      -0.00000000 
B      12.49546000      13.05912000       6.00000000      -0.00896000       0.00434200      -0.00000000 
B      13.76320000      15.25491000       6.00000000      -0.00824100       0.00558900      -0.00000000 
B      15.03419000      17.43784000       6.00000000      -0.00237400       0.00832100      -0.00000000 
B      16.30896000      19.58829000       6.00000000       0.00252700       0.00633900      -0.00000000 
B      17.56886000      21.75257000       6.00000000       0.00315000       0.00308200       0.00000000 
B      18.82500000      23.91970000       6.00000000       0.00000000      -0.00263200      -0.00000000 
B       7.52715000       0.00165000       6.00000000      -0.00962000       0.00555400      -0.00000000 
B       8.77764000       2.16966000       6.00000000       0.00076800       0.00432300      -0.00000000 
B      10.02730000       4.33880000       6.00000000      -0.00424500       0.00118700      -0.00000000 
B      11.27418000       6.50915000       6.00000000      -0.01051700      -0.00607200      -0.00000000 
B      12.51603000       8.68207000       6.00000000      -0.00874000      -0.00015200      -0.00000000 
B      13.70631000      10.86746000       6.00000000      -0.00567500       0.00104200      -0.00000000 
B      14.98218000      13.08727000       6.00000000      -0.00755100       0.00435900      -0.00000000 
B      16.26666000      15.30211000       6.00000000      -0.00374000       0.00439400       0.00000000 
B      17.56412000      17.42562000       6.00000000      -0.00423900       0.00764500      -0.00000000 
B      18.82500000      19.58756000       6.00000000       0.00000000       0.01214400      -0.00000000 
B      20.08114000      21.75257000       6.00000000      -0.00315000       0.00308200       0.00000000 
B      21.33484000      23.91937000       6.00000000      -0.00336000      -0.00282700      -0.00000000 
B      10.03426000      -0.00279000       6.00000000       0.00511800       0.01813900      -0.00000000 
B      11.28333000       2.16343000       6.00000000      -0.00047400      -0.00171100      -0.00000000 
B      12.53156000       4.32983000       6.00000000      -0.00675300      -0.00098100      -0.00000000 
B      13.77691000       6.49816000       6.00000000      -0.00450100      -0.00749300      -0.00000000 
B      15.02177000       8.67282000       6.00000000      -0.01000500      -0.00577600      -0.00000000 
B      16.14606000      10.88183000       6.00000000       0.00080100      -0.00016200      -0.00000000 
B      17.47409000      13.18205000       6.00000000       0.00054000      -0.00061200       0.00000000 
B      18.82500000      15.26021000       6.00000000      -0.00000000       0.01155300      -0.00000000 
B      20.08588000      17.42562000       6.00000000       0.00423900       0.00764500      -0.00000000 
B      21.34104000      19.58829000       6.00000000      -0.00252700       0.00633900      -0.00000000 
B      22.59308000      21.75249000       6.00000000       0.00124500       0.00126500       0.00000000 
B      23.84454000      23.91732000       6.00000000      -0.01315000      -0.01350200      -0.00000000 
B      12.54118000      -0.01072000       6.00000000       0.00279200       0.01040800      -0.00000000 
B      13.78784000       2.14909000       6.00000000       0.00165500      -0.00544100      -0.00000000 
B      15.03130000       4.30107000       6.00000000      -0.00602000      -0.00621600      -0.00000000 
B      16.26465000       6.43629000       6.00000000      -0.00193500      -0.00543600      -0.00000000 
B      17.49697000       8.54198000       6.00000000       0.00026000       0.00077400      -0.00000000 
B      20.17591000      13.18205000       6.00000000      -0.00054000      -0.00061200      -0.00000000 
B      21.38334000      15.30211000       6.00000000       0.00374000       0.00439400      -0.00000000 
B      22.61581000      17.43784000       6.00000000       0.00237400       0.00832100      -0.00000000 
B      23.85775000      19.59070000       6.00000000       0.00553900       0.00128700      -0.00000000 
B      25.10488000      21.75024000       6.00000000      -0.00761700      -0.00762200      -0.00000000 
B      26.35319000      23.91200000       6.00000000       0.00357500      -0.00206400      -0.00000000 
B      15.05179000      -0.01732000       6.00000000       0.00423100       0.00014600      -0.00000000 
B      16.30297000       2.14056000       6.00000000       0.00222600      -0.00274100      -0.00000000 
B      17.55726000       4.29182000       6.00000000      -0.00072000      -0.00993100      -0.00000000 
B      18.82500000       6.43131000       6.00000000       0.00000000      -0.00871900      -0.00000000 
B      20.15303000       8.54198000       6.00000000      -0.00026000       0.00077400       0.00000000 
B      21.50394000      10.88183000       6.00000000      -0.00080100      -0.00016200      -0.00000000 
B      22.66782000      13.08727000       6.00000000       0.00755100       0.00435900      -0.00000000 
B      23.88680000      15.25491000       6.00000000       0.00824100       0.00558900      -0.00000000 
B      25.12271000      17.41680000       6.00000000       0.00348700      -0.00055700      -0.00000000 
B      26.36589000      19.57929000       6.00000000       0.00198900      -0.00373700      -0.00000000 
B      27.61335000      21.74251000       6.00000000       0.00054600      -0.00870400      -0.00000000 
B      28.86211000      23.90542000       6.00000000       0.00781100       0.00388000      -0.00000000 
B      17.56655000      -0.02101000       6.00000000       0.00473900      -0.00316300      -0.00000000 
B      18.82500000       2.13754000       6.00000000       0.00000000       0.00055900      -0.00000000 
B      20.09274000       4.29182000       6.00000000       0.00072000      -0.00993100      -0.00000000 
B      21.38535000       6.43629000       6.00000000       0.00193500      -0.00543600      -0.00000000 
B      22.62823000       8.67282000       6.00000000       0.01000500      -0.00577600      -0.00000000 
B      23.94369000      10.86746000       6.00000000       0.00567500       0.00104200      -0.00000000 
B      25.15454000      13.05912000       6.00000000       0.00896000       0.00434200      -0.00000000 
B      26.38634000      15.23416000       6.00000000      -0.00048400      -0.00027900      -0.00000000 
B      27.62647000      17.40329000       6.00000000       0.00510900      -0.00252200      -0.00000000 
B      28.87246000      19.57033000       6.00000000       0.00479800      -0.00374200      -0.00000000 
B      30.12173000      21.73624000       6.00000000       0.00722600      -0.00417200      -0.00000000 
B      31.37282000      23.90110000       6.00000000       0.00564000      -0.00228400      -0.00000000 
B      20.08345000      -0.02101000       6.00000000      -0.00473900      -0.00316300       0.00000000 
B      21.34703000       2.14056000       6.00000000      -0.00222600      -0.00274100      -0.00000000 
B      22.61870000       4.30107000       6.00000000       0.00602000      -0.00621600      -0.00000000 
B      23.87309000       6.49816000       6.00000000       0.00450100      -0.00749300      -0.00000000 
B      25.13397000       8.68207000       6.00000000       0.00874000      -0.00015200      -0.00000000 
B      26.40951000      10.86695000       6.00000000       0.00839300      -0.00210500      -0.00000000 
B      27.64474000      13.04851000       6.00000000       0.00126100       0.00329800      -0.00000000 
B      28.88492000      15.22358000       6.00000000       0.00037000       0.00568600      -0.00000000 
B      30.12973000      17.39541000       6.00000000       0.00695000       0.00401300      -0.00000000 
B      31.37907000      19.56513000       6.00000000      -0.00347700      -0.00400000      -0.00000000 
B      32.63063000      21.73291000       6.00000000       0.00172500       0.00501100      -0.00000000 
B      33.88500000      23.89973000       6.00000000       0.00000000      -0.00802600       0.00000000 
B      22.59821000      -0.01732000       6.00000000      -0.00423100       0.00014600      -0.00000000 
B      23.86216000       2.14909000       6.00000000      -0.00165500      -0.00544100      -0.00000000 
B      25.11844000       4.32983000       6.00000000       0.00675300      -0.00098100      -0.00000000 
B      26.37582000       6.50915000       6.00000000       0.01051700      -0.00607200      -0.00000000 
B      27.63448000       8.68773000       6.00000000       0.00422600      -0.00535700      -0.00000000 
B      28.89492000      10.86607000       6.00000000       0.00388400       0.00415400      -0.00000000 
B      30.13911000      13.04389000       6.00000000      -0.00224200       0.00359100      -0.00000000 
B      31.38463000      15.21912000       6.00000000      -0.00084200       0.00602700      -0.00000000 
B      32.63343000      17.39250000       6.00000000      -0.00520200      -0.00101100      -0.00000000 
B      33.88500000      19.56351000       6.00000000       0.00000000      -0.00000000      -0.00000000 
B      35.13937000      21.73291000       6.00000000      -0.00172500       0.00501100      -0.00000000 
B      36.39718000      23.90110000       6.00000000      -0.00564000      -0.00228400      -0.00000000 
B      25.10882000      -0.01072000       6.00000000      -0.00279200       0.01040800      -0.00000000 
B      26.36667000       2.16343000       6.00000000       0.00047400      -0.00171100      -0.00000000 
B      27.62270000       4.33880000       6.00000000       0.00424500       0.00118700       0.00000000 
B      28.87884000       6.51450000       6.00000000       0.00109500      -0.00426900      -0.00000000 
B      30.13475000       8.68994000       6.00000000       0.00171800       0.00044500      -0.00000000 
B      31.38870000      10.86634000       6.00000000      -0.01041000      -0.00278600      -0.00000000 
B      32.63624000      13.04261000       6.00000000      -0.00726500       0.00482500      -0.00000000 
B      33.88500000      15.21806000       6.00000000      -0.00000000       0.00834400      -0.00000000 
B      35.13657000      17.39250000       6.00000000       0.00520200      -0.00101100      -0.00000000 
B      36.39093000      19.56513000       6.00000000       0.00347700      -0.00400000      -0.00000000 
B      37.64827000      21.73624000       6.00000000      -0.00722600      -0.00417200      -0.00000000 
B      38.90789000      23.90542000       6.00000000      -0.00781100       0.00388000      -0.00000000 
B      27.61574000      -0.00279000       6.00000000      -0.00511800       0.01813900      -0.00000000 
B      28.87236000       2.16966000       6.00000000      -0.00076800       0.00432300      -0.00000000 
B      30.12757000       4.34308000       6.00000000      -0.00228000       0.00131600      -0.00000000 
B      31.38220000       6.51683000       6.00000000      -0.00412800      -0.00149600      -0.00000000 
B      32.63528000       8.69132000       6.00000000      -0.01826800      -0.00463700       0.00000000 
B      33.88500000      10.86653000       6.00000000      -0.00000000       0.00412800      -0.00000000 
B      35.13376000      13.04261000       6.00000000       0.00726500       0.00482500      -0.00000000 
B      36.38537000      15.21912000       6.00000000       0.00084200       0.00602700      -0.00000000 
B      37.64027000      17.39541000       6.00000000      -0.00695000       0.00401300       0.00000000 
B      38.89754000      19.57033000       6.00000000      -0.00479800      -0.00374200      -0.00000000 
B      40.15665000      21.74251000       6.00000000      -0.00054600      -0.00870400      -0.00000000 
B      41.41681000      23.91200000       6.00000000      -0.00357500      -0.00206400      -0.00000000 
N       1.25695000       0.72570000       6.00000000      -0.00046100      -0.00026600      -0.00000000 
N       2.51206000       2.89711000       6.00000000      -0.01469000       0.00848200      -0.00000000 
N       3.76500000       5.06977000       6.00000000       0.00000000       0.00053300       0.00000000 
N       5.01632000       7.24312000       6.00000000      -0.00203900      -0.00602500      -0.00000000 
N       6.26467000       9.41761000       6.00000000      -0.00218300      -0.00324600      -0.00000000 
N       7.50851000      11.59462000       6.00000000       0.00115100       0.00607700      -0.00000000 
N       8.75868000      13.77459000       6.00000000       0.00239600       0.00630100      -0.00000000 
N      10.01453000      15.95535000       6.00000000      -0.00008600       0.00005000      -0.00000000 
N      11.27519000      18.13332000       6.00000000      -0.00425900      -0.00522600      -0.00000000 
N      12.53802000      20.30599000       6.00000000      -0.00468700      -0.00403500      -0.00000000 
N      13.80144000      22.47169000       6.00000000       0.00171900       0.00351300      -0.00000000 
N      15.06043000      24.64003000       6.00000000       0.00419800       0.00477800      -0.00000000 
N       3.76500000       0.72695000       6.00000000      -0.00000000      -0.01696300      -0.00000000 
N       5.01794000       2.89711000       6.00000000       0.01469000       0.00848200      -0.00000000 
N       6.26968000       5.06885000       6.00000000       0.00689300      -0.00641400      -0.00000000 
N       7.51910000       7.24145000       6.00000000      -0.00410800      -0.00579200      -0.00000000 
N       8.76410000       9.41646000       6.00000000       0.00510100       0.00153600       0.00000000 
N       9.99810000      11.59781000       6.00000000       0.00576700       0.00074100      -0.00000000 
N      11.25099000      13.78438000       6.00000000       0.00447500      -0.00133200      -0.00000000 
N      12.51287000      15.97003000       6.00000000       0.00339100      -0.00321000      -0.00000000 
N      13.78005000      18.14834000       6.00000000       0.00224200      -0.00536500      -0.00000000 
N      15.05215000      20.30769000       6.00000000       0.00122000      -0.00518600      -0.00000000 
N      16.31327000      22.47340000       6.00000000       0.00296200       0.00645400      -0.00000000 
N      17.57009000      24.64173000       6.00000000       0.00900100      -0.00276300       0.00000000 
N       6.27305000       0.72570000       6.00000000       0.00046100      -0.00026600      -0.00000000 
N       7.52459000       2.89528000       6.00000000      -0.00210800       0.00917700      -0.00000000 
N       8.77497000       5.06623000       6.00000000      -0.01379100      -0.00796200      -0.00000000 
N      10.02204000       7.23836000       6.00000000       0.00307800      -0.00049100      -0.00000000 
N      11.26317000       9.41501000       6.00000000       0.00261500      -0.00080700      -0.00000000 
N      12.47443000      11.60516000       6.00000000       0.00813600      -0.00108800      -0.00000000 
N      13.73864000      13.80523000       6.00000000       0.00871800      -0.00503300      -0.00000000 
N      15.01185000      16.00010000       6.00000000       0.00501000      -0.00650200      -0.00000000 
N      16.30295000      18.14416000       6.00000000       0.00200600      -0.00186100       0.00000000 
N      17.56742000      20.30733000       6.00000000       0.00196400      -0.00242000      -0.00000000 
N      18.82500000      22.47339000       6.00000000      -0.00000000       0.01592400      -0.00000000 
N      20.07991000      24.64173000       6.00000000      -0.00900100      -0.00276300      -0.00000000 
N       8.78089000       0.72270000       6.00000000      -0.00623700       0.00124700      -0.00000000 
N      10.03083000       2.89101000       6.00000000      -0.00707000      -0.00066200      -0.00000000 
N      11.27962000       5.06016000       6.00000000       0.00111400       0.00291100      -0.00000000 
N      12.52524000       7.23145000       6.00000000       0.00047700       0.00027500      -0.00000000 
N      13.76321000       9.41034000       6.00000000       0.00288000      -0.00287800       0.00000000 
N      14.91611000      11.62267000       6.00000000       0.00168500      -0.00254100      -0.00000000 
N      16.21753000      13.87679000       6.00000000       0.00304400      -0.00018900      -0.00000000 
N      17.55701000      15.98140000       6.00000000       0.00393300      -0.00105500      -0.00000000 
N      18.82500000      18.14296000       6.00000000       0.00000000      -0.00055100       0.00000000 
N      20.08258000      20.30733000       6.00000000      -0.00196400      -0.00242000      -0.00000000 
N      21.33673000      22.47340000       6.00000000      -0.00296200       0.00645400      -0.00000000 
N      22.58957000      24.64003000       6.00000000      -0.00419800       0.00477800      -0.00000000 
N      11.28822000       0.71656000       6.00000000      -0.00390200      -0.00026800       0.00000000 
N      12.53694000       2.88170000       6.00000000       0.00388100       0.00364900       0.00000000 
N      13.78522000       5.04669000       6.00000000       0.00060900       0.00266800       0.00000000 
N      15.03119000       7.21412000       6.00000000      -0.00105300       0.00393300       0.00000000 
N      16.28037000       9.39948000       6.00000000       0.00536700       0.00309900      -0.00000000 
N      17.19030000      11.81241000       6.00000000      -0.00635300       0.00366800      -0.00000000 
N      18.82500000      13.80690000       6.00000000      -0.00000000      -0.00619700       0.00000000 
N      20.09299000      15.98140000       6.00000000      -0.00393300      -0.00105500      -0.00000000 
N      21.34705000      18.14416000       6.00000000      -0.00200600      -0.00186100      -0.00000000 
N      22.59785000      20.30769000       6.00000000      -0.00122000      -0.00518600      -0.00000000 
N      23.84856000      22.47169000       6.00000000      -0.00171900       0.00351300      -0.00000000 
N      25.09886000      24.63619000       6.00000000      -0.00248000       0.00143200       0.00000000 
N      13.79549000       0.70525000       6.00000000       0.00583800      -0.00204100      -0.00000000 
N      15.04305000       2.85970000       6.00000000       0.00352500       0.00462400      -0.00000000 
N      16.28758000       5.00059000       6.00000000       0.00312600       0.00759000      -0.00000000 
N      17.52358000       7.10640000       6.00000000      -0.00135800       0.00273000       0.00000000 
N      18.82500000       8.98103000       6.00000000       0.00000000      -0.00733600      -0.00000000 
N      20.45970000      11.81241000       6.00000000       0.00635300       0.00366800      -0.00000000 
N      21.43247000      13.87679000       6.00000000      -0.00304400      -0.00018900      -0.00000000 
N      22.63815000      16.00010000       6.00000000      -0.00501000      -0.00650200      -0.00000000 
N      23.86995000      18.14834000       6.00000000      -0.00224200      -0.00536500      -0.00000000 
N      25.11198000      20.30599000       6.00000000       0.00468700      -0.00403500       0.00000000 
N      26.35905000      22.46716000       6.00000000       0.00173700       0.00559400      -0.00000000 
N      27.60739000      24.62935000       6.00000000      -0.00397600      -0.00430200       0.00000000 
N      16.30849000       0.69795000       6.00000000       0.00665500      -0.00107600       0.00000000 
N      17.56312000       2.85145000       6.00000000       0.00108400       0.00454100      -0.00000000 
N      18.82500000       4.99540000       6.00000000      -0.00000000       0.01006600      -0.00000000 
N      20.12642000       7.10640000       6.00000000       0.00135800       0.00273000       0.00000000 
N      21.36963000       9.39948000       6.00000000      -0.00536700       0.00309900       0.00000000 
N      22.73389000      11.62267000       6.00000000      -0.00168500      -0.00254100      -0.00000000 
N      23.91136000      13.80523000       6.00000000      -0.00871800      -0.00503300      -0.00000000 
N      25.13713000      15.97003000       6.00000000      -0.00339100      -0.00321000      -0.00000000 
N      26.37481000      18.13332000       6.00000000       0.00425900      -0.00522600      -0.00000000 
N      27.61927000      20.29686000       6.00000000       0.00703600      -0.00288700       0.00000000 
N      28.86750000      22.46037000       6.00000000      -0.00054200       0.00031300      -0.00000000 
N      30.11703000      24.62312000       6.00000000       0.00601800      -0.00465000      -0.00000000 
N      18.82500000       0.69516000       6.00000000       0.00000000      -0.00010000      -0.00000000 
N      20.08688000       2.85145000       6.00000000      -0.00108400       0.00454100      -0.00000000 
N      21.36242000       5.00059000       6.00000000      -0.00312600       0.00759000       0.00000000 
N      22.61881000       7.21412000       6.00000000       0.00105300       0.00393300      -0.00000000 
N      23.88679000       9.41034000       6.00000000      -0.00288000      -0.00287800      -0.00000000 
N      25.17557000      11.60516000       6.00000000      -0.00813600      -0.00108800      -0.00000000 
N      26.39901000      13.78438000       6.00000000      -0.00447500      -0.00133200      -0.00000000 
N      27.63547000      15.95535000       6.00000000       0.00008600       0.00005000      -0.00000000 
N      28.87800000      18.12347000       6.00000000       0.01311100      -0.00478300      -0.00000000 
N      30.12584000      20.29011000       6.00000000      -0.00188300      -0.00035000       0.00000000 
N      31.37617000      22.45574000       6.00000000      -0.00063900       0.00180600       0.00000000 
N      32.62862000      24.61973000       6.00000000       0.01069800      -0.00896300      -0.00000000 
N      21.34151000       0.69795000       6.00000000      -0.00665500      -0.00107600       0.00000000 
N      22.60695000       2.85970000       6.00000000      -0.00352500       0.00462400      -0.00000000 
N      23.86478000       5.04669000       6.00000000      -0.00060900       0.00266800      -0.00000000 
N      25.12476000       7.23145000       6.00000000      -0.00047700       0.00027500       0.00000000 
N      26.38683000       9.41501000       6.00000000      -0.00261500      -0.00080700      -0.00000000 
N      27.65190000      11.59781000       6.00000000      -0.00576700       0.00074100      -0.00000000 
N      28.89132000      13.77459000       6.00000000      -0.00239600       0.00630100      -0.00000000 
N      30.13438000      15.94735000       6.00000000       0.00241300       0.01374600      -0.00000000 
N      31.38162000      18.11819000       6.00000000      -0.00724100      -0.00418100      -0.00000000 
N      32.63219000      20.28682000       6.00000000      -0.00967100       0.00558400      -0.00000000 
N      33.88500000      22.45417000       6.00000000      -0.00000000       0.00836100      -0.00000000 
N      35.14138000      24.61973000       6.00000000      -0.01069800      -0.00896300      -0.00000000 
N      23.85451000       0.70525000       6.00000000      -0.00583800      -0.00204100      -0.00000000 
N      25.11306000       2.88170000       6.00000000      -0.00388100       0.00364900      -0.00000000 
N      26.37038000       5.06016000       6.00000000      -0.00111400       0.00291100      -0.00000000 
N      27.62796000       7.23836000       6.00000000      -0.00307800      -0.00049100      -0.00000000 
N      28.88590000       9.41646000       6.00000000      -0.00510100       0.00153600      -0.00000000 
N      30.14149000      11.59462000       6.00000000      -0.00115100       0.00607700      -0.00000000 
N      31.38724000      13.77056000       6.00000000       0.00101800       0.00753700      -0.00000000 
N      32.63467000      15.94469000       6.00000000      -0.00124500      -0.00145600       0.00000000 
N      33.88500000      18.11690000       6.00000000       0.00000000      -0.01116700       0.00000000 
N      35.13781000      20.28682000       6.00000000       0.00967100       0.00558400      -0.00000000 
N      36.39383000      22.45574000       6.00000000       0.00063900       0.00180600       0.00000000 
N      37.65297000      24.62312000       6.00000000      -0.00601800      -0.00465000       0.00000000 
N      26.36178000       0.71656000       6.00000000       0.00390200      -0.00026800      -0.00000000 
N      27.61917000       2.89101000       6.00000000       0.00707000      -0.00066200      -0.00000000 
N      28.87503000       5.06623000       6.00000000       0.01379100      -0.00796200      -0.00000000 
N      30.13090000       7.24145000       6.00000000       0.00410800      -0.00579200      -0.00000000 
N      31.38533000       9.41761000       6.00000000       0.00218300      -0.00324600      -0.00000000 
N      32.63666000      11.59403000       6.00000000       0.00571300      -0.00129300      -0.00000000 
N      33.88500000      13.76980000       6.00000000       0.00000000      -0.00062600      -0.00000000 
N      35.13533000      15.94469000       6.00000000       0.00124500      -0.00145600      -0.00000000 
N      36.38838000      18.11819000       6.00000000       0.00724100      -0.00418100      -0.00000000 
N      37.64416000      20.29011000       6.00000000       0.00188300      -0.00035000       0.00000000 
N      38.90250000      22.46037000       6.00000000       0.00054200       0.00031300      -0.00000000 
N      40.16261000      24.62935000       6.00000000       0.00397600      -0.00430200      -0.00000000 
N      28.86911000       0.72270000       6.00000000       0.00623700       0.00124700      -0.00000000 
N      30.12541000       2.89528000       6.00000000       0.00210800       0.00917700       0.00000000 
N      31.38032000       5.06885000       6.00000000      -0.00689300      -0.00641400      -0.00000000 
N      32.63368000       7.24312000       6.00000000       0.00203900      -0.00602500      -0.00000000 
N      33.88500000       9.41816000       6.00000000       0.00000000      -0.00286400       0.00000000 
N      35.13334000      11.59403000       6.00000000      -0.00571300      -0.00129300       0.00000000 
N      36.38276000      13.77056000       6.00000000      -0.00101800       0.00753700      -0.00000000 
N      37.63562000      15.94735000       6.00000000      -0.00241300       0.01374600      -0.00000000 
N      38.89200000      18.12347000       6.00000000      -0.01311100      -0.00478300      -0.00000000 
N      40.15073000      20.29686000       6.00000000      -0.00703600      -0.00288700       0.00000000 
N      41.41095000      22.46716000       6.00000000      -0.00173700       0.00559400      -0.00000000 
N      42.67114000      24.63619000       6.00000000       0.00248000       0.00143200      -0.00000000 
Au      18.82500000      10.86862000       6.00000000       0.00000000      -0.00000000      -0.00000000 
