18
Lattice="7.53 0.0 0.0 3.765 6.521171 0.0 0.0 0.0 12.0" Properties=species:S:1:pos:R:3:forces:R:3 pbe340=-5.742475787527754 energy=-156.26072539 stress="0.028104835269357593 -0.0 -0.0 -0.0 0.028104835269357593 0.0 -0.0 0.0 0.026845498456046373" magmom=1.0000015 pbc="T T T"
B       1.25500000       0.72457000       6.00000000       0.00000000      -0.00000000       0.00000000 
B       2.51752000       2.89539000       6.00000000      -0.00976000       0.00551000       0.00000000 
B       3.77128000       5.06696000       6.00000000      -0.00965200       0.00569700       0.00000000 
B       3.76624000       0.73254000       6.00000000      -0.00010800      -0.01120800       0.00000000 
B       6.26872000       5.06696000       6.00000000       0.00965200       0.00569700       0.00000000 
B       6.27376000       0.73254000       6.00000000       0.00010800      -0.01120800       0.00000000 
B       7.52248000       2.89539000       6.00000000       0.00976000       0.00551000       0.00000000 
B       8.78500000       5.07202000       6.00000000       0.00000000      -0.00000000       0.00000000 
C       5.02000000       2.89830000       6.00000000       0.00000000      -0.00000000       0.00000000 
N       2.50932000       1.44876000       6.00000000      -0.01019700      -0.00588700       0.00000000 
N       3.79550000       3.60526000       6.00000000      -0.00675900       0.00390200       0.00000000 
N       5.02000000       5.79738000       6.00000000      -0.00000000       0.01177500       0.00000000 
N       5.02000000       1.48437000       6.00000000       0.00000000      -0.00780400      -0.00000000 
N       6.24450000       3.60526000       6.00000000       0.00675900       0.00390200       0.00000000 
N       7.53156000       5.79570000       6.00000000       0.01018400      -0.00588000       0.00000000 
N       7.53068000       1.44876000       6.00000000       0.01019700      -0.00588700       0.00000000 
N       8.78500000       3.62467000       6.00000000      -0.00000000       0.01175900       0.00000000 
N      10.03844000       5.79570000       6.00000000      -0.01018400      -0.00588000       0.00000000 
