8
Lattice="5.02 0.0 0.0 2.51 4.347447527 0.0 0.0 0.0 12.0" Properties=species:S:1:pos:R:3:Z:I:1 pbc="F F F"
B      1.25500000       0.72457459       6.00000000        5 
N      2.51000000       1.44914918       6.00000000        7 
B      2.51000000       2.89829835       6.00000000        5 
N      3.76500000       3.62287294       6.00000000        7 
C      3.76500000       0.72457459       6.00000000        6 
N      5.02000000       1.44914918       6.00000000        7 
B      5.02000000       2.89829835       6.00000000        5 
N      6.27500000       3.62287294       6.00000000        7 
